
This summary information was generated by ElastoDyn on 27-Feb-2024 at 16:22:32.


Turbine features:

            Upwind, 3-bladed rotor with rigid hub.
            The model has 15 of 24 DOFs active (enabled) at start-up.
 Disabled   Platform horizontal surge translation DOF 
 Disabled   Platform horizontal sway translation DOF 
 Disabled   Platform vertical heave translation DOF 
 Disabled   Platform roll tilt rotation DOF 
 Disabled   Platform pitch tilt rotation DOF 
 Disabled   Platform yaw rotation DOF 
 Enabled    1st tower fore-aft bending mode DOF 
 Enabled    1st tower side-to-side bending mode DOF 
 Enabled    2nd tower fore-aft bending mode DOF 
 Enabled    2nd tower side-to-side bending mode DOF 
 Disabled   Nacelle yaw DOF 
 Disabled   Rotor-furl DOF 
 Enabled    Variable speed generator DOF 
 Enabled    Drivetrain rotational-flexibility DOF 
 Disabled   Tail-furl DOF 
 Enabled    1st flapwise bending-mode DOF of blade 1 
 Enabled    1st edgewise bending-mode DOF of blade 1 
 Enabled    2nd flapwise bending-mode DOF of blade 1 
 Enabled    1st flapwise bending-mode DOF of blade 2 
 Enabled    1st edgewise bending-mode DOF of blade 2 
 Enabled    2nd flapwise bending-mode DOF of blade 2 
 Enabled    1st flapwise bending-mode DOF of blade 3 
 Enabled    1st edgewise bending-mode DOF of blade 3 
 Enabled    2nd flapwise bending-mode DOF of blade 3 


Time steps:

    Structural            (s)        0.00500000


Some calculated parameters:

    Hub-Height            (m)            90.000
    Flexible Tower Length (m)            87.600
    Flexible Blade Length (m)            61.500


Rotor mass properties:

    Rotor Mass            (kg)       109389.842
    Rotor Inertia         (kg-m^2) 38677040.613
                                        Blade 1      Blade 2      Blade 3
                                        -------      -------      -------
    Mass                  (kg)        17536.614    17536.614    17536.614
    Second Mass Moment    (kg-m^2) 11752352.265 11752352.265 11752352.265
    First Mass Moment     (kg-m)     362132.653   362132.653   362132.653
    Center of Mass        (m)            20.650       20.650       20.650


Additional mass properties:

    Tower-top Mass        (kg)       349389.842
    Tower Mass            (kg)       347424.011
    Platform Mass         (kg)            0.000
    Mass Incl. Platform   (kg)       696813.853


Interpolated tower properties:

Node  TwFract   HNodes  DHNodes  TMassDen    FAStiff    SSStiff
 (-)      (-)      (m)      (m)    (kg/m)     (Nm^2)     (Nm^2)
   1    0.045    3.982    7.964  5427.943  5.782E+11  5.782E+11
   2    0.136   11.945    7.964  5106.368  5.088E+11  5.088E+11
   3    0.227   19.909    7.964  4794.426  4.458E+11  4.458E+11
   4    0.318   27.873    7.964  4492.121  3.887E+11  3.887E+11
   5    0.409   35.836    7.964  4199.446  3.373E+11  3.373E+11
   6    0.500   43.800    7.964  3916.410  2.910E+11  2.910E+11
   7    0.591   51.764    7.964  3644.065  2.501E+11  2.501E+11
   8    0.682   59.727    7.964  3381.357  2.137E+11  2.137E+11
   9    0.773   67.691    7.964  3128.288  1.813E+11  1.813E+11
  10    0.864   75.655    7.964  2884.845  1.527E+11  1.527E+11
  11    0.955   83.618    7.964  2651.034  1.276E+11  1.276E+11


Interpolated blade 1 properties:

Node  BlFract   RNodes  DRNodes PitchAxis  StrcTwst  BMassDen    FlpStff    EdgStff
 (-)      (-)      (m)      (m)       (-)     (deg)    (kg/m)     (Nm^2)     (Nm^2)
   1    0.029    3.309    3.618     0.253    13.308   787.554  1.823E+10  1.952E+10
   2    0.088    6.926    3.618     0.294    13.308   464.487  7.021E+09  9.977E+09
   3    0.147   10.544    3.618     0.339    13.308   414.917  4.944E+09  6.990E+09
   4    0.206   14.162    3.618     0.375    12.545   412.664  3.178E+09  6.695E+09
   5    0.265   17.779    3.618     0.375    10.770   361.957  2.263E+09  4.796E+09
   6    0.324   21.397    3.618     0.375     9.757   346.452  1.862E+09  4.283E+09
   7    0.382   25.015    3.618     0.375     8.731   330.982  1.440E+09  3.835E+09
   8    0.441   28.632    3.618     0.375     7.647   304.395  9.968E+08  3.304E+09
   9    0.500   32.250    3.618     0.375     6.549   272.375  6.410E+08  2.685E+09
  10    0.559   35.868    3.618     0.375     5.498   250.787  4.010E+08  2.292E+09
  11    0.618   39.485    3.618     0.375     4.462   211.668  2.468E+08  1.610E+09
  12    0.676   43.103    3.618     0.375     3.482   177.049  1.409E+08  1.225E+09
  13    0.735   46.721    3.618     0.375     2.693   153.160  9.890E+07  9.067E+08
  14    0.794   50.338    3.618     0.375     1.993   128.005  7.145E+07  6.486E+08
  15    0.853   53.956    3.618     0.375     1.292   102.116  4.819E+07  4.472E+08
  16    0.912   57.574    3.618     0.375     0.598    77.547  3.095E+07  3.109E+08
  17    0.971   61.191    3.618     0.375     0.141    51.403  1.013E+07  1.019E+08


Interpolated blade 2 properties:

Node  BlFract   RNodes  DRNodes PitchAxis  StrcTwst  BMassDen    FlpStff    EdgStff
 (-)      (-)      (m)      (m)       (-)     (deg)    (kg/m)     (Nm^2)     (Nm^2)
   1    0.029    3.309    3.618     0.253    13.308   787.554  1.823E+10  1.952E+10
   2    0.088    6.926    3.618     0.294    13.308   464.487  7.021E+09  9.977E+09
   3    0.147   10.544    3.618     0.339    13.308   414.917  4.944E+09  6.990E+09
   4    0.206   14.162    3.618     0.375    12.545   412.664  3.178E+09  6.695E+09
   5    0.265   17.779    3.618     0.375    10.770   361.957  2.263E+09  4.796E+09
   6    0.324   21.397    3.618     0.375     9.757   346.452  1.862E+09  4.283E+09
   7    0.382   25.015    3.618     0.375     8.731   330.982  1.440E+09  3.835E+09
   8    0.441   28.632    3.618     0.375     7.647   304.395  9.968E+08  3.304E+09
   9    0.500   32.250    3.618     0.375     6.549   272.375  6.410E+08  2.685E+09
  10    0.559   35.868    3.618     0.375     5.498   250.787  4.010E+08  2.292E+09
  11    0.618   39.485    3.618     0.375     4.462   211.668  2.468E+08  1.610E+09
  12    0.676   43.103    3.618     0.375     3.482   177.049  1.409E+08  1.225E+09
  13    0.735   46.721    3.618     0.375     2.693   153.160  9.890E+07  9.067E+08
  14    0.794   50.338    3.618     0.375     1.993   128.005  7.145E+07  6.486E+08
  15    0.853   53.956    3.618     0.375     1.292   102.116  4.819E+07  4.472E+08
  16    0.912   57.574    3.618     0.375     0.598    77.547  3.095E+07  3.109E+08
  17    0.971   61.191    3.618     0.375     0.141    51.403  1.013E+07  1.019E+08


Interpolated blade 3 properties:

Node  BlFract   RNodes  DRNodes PitchAxis  StrcTwst  BMassDen    FlpStff    EdgStff
 (-)      (-)      (m)      (m)       (-)     (deg)    (kg/m)     (Nm^2)     (Nm^2)
   1    0.029    3.309    3.618     0.253    13.308   787.554  1.823E+10  1.952E+10
   2    0.088    6.926    3.618     0.294    13.308   464.487  7.021E+09  9.977E+09
   3    0.147   10.544    3.618     0.339    13.308   414.917  4.944E+09  6.990E+09
   4    0.206   14.162    3.618     0.375    12.545   412.664  3.178E+09  6.695E+09
   5    0.265   17.779    3.618     0.375    10.770   361.957  2.263E+09  4.796E+09
   6    0.324   21.397    3.618     0.375     9.757   346.452  1.862E+09  4.283E+09
   7    0.382   25.015    3.618     0.375     8.731   330.982  1.440E+09  3.835E+09
   8    0.441   28.632    3.618     0.375     7.647   304.395  9.968E+08  3.304E+09
   9    0.500   32.250    3.618     0.375     6.549   272.375  6.410E+08  2.685E+09
  10    0.559   35.868    3.618     0.375     5.498   250.787  4.010E+08  2.292E+09
  11    0.618   39.485    3.618     0.375     4.462   211.668  2.468E+08  1.610E+09
  12    0.676   43.103    3.618     0.375     3.482   177.049  1.409E+08  1.225E+09
  13    0.735   46.721    3.618     0.375     2.693   153.160  9.890E+07  9.067E+08
  14    0.794   50.338    3.618     0.375     1.993   128.005  7.145E+07  6.486E+08
  15    0.853   53.956    3.618     0.375     1.292   102.116  4.819E+07  4.472E+08
  16    0.912   57.574    3.618     0.375     0.598    77.547  3.095E+07  3.109E+08
  17    0.971   61.191    3.618     0.375     0.141    51.403  1.013E+07  1.019E+08


Requested Outputs:


 Col   Parameter            Units               
 ---   ---------------      ---------------     
   0   Time                 (s)                 
   1   OoPDefl1             (m)                 
   2   IPDefl1              (m)                 
   3   TwstDefl1            (deg)               
   4   BldPitch1            (deg)               
   5   BldPitch2            (deg)               
   6   BldPitch3            (deg)               
   7   Azimuth              (deg)               
   8   RotSpeed             (rpm)               
   9   RotThrust            (kN)                
  10   GenSpeed             (rpm)               
  11   TTDspFA              (m)                 
  12   TTDspSS              (m)                 
  13   TTDspTwst            (deg)               
  14   Spn2MLxb1            (kN-m)              
  15   Spn2MLyb1            (kN-m)              
  16   RootFxb1             (kN)                
  17   RootFyb1             (kN)                
  18   RootFzb1             (kN)                
  19   RootMxb1             (kN-m)              
  20   RootMyb1             (kN-m)              
  21   RootMyb2             (kN-m)              
  22   RootMyb3             (kN-m)              
  23   RootMyc1             (kN-m)              
  24   RootMyc2             (kN-m)              
  25   RootMyc3             (kN-m)              
  26   RootMzb1             (kN-m)              
  27   RotTorq              (kN-m)              
  28   LSSGagMya            (kN-m)              
  29   LSSGagMza            (kN-m)              
  30   YawBrFxp             (kN)                
  31   YawBrFyp             (kN)                
  32   YawBrFzp             (kN)                
  33   YawBrMxp             (kN-m)              
  34   YawBrMyp             (kN-m)              
  35   YawBrMzp             (kN-m)              
  36   TwrBsFxt             (kN)                
  37   TwrBsFyt             (kN)                
  38   TwrBsFzt             (kN)                
  39   TwrBsMxt             (kN-m)              
  40   TwrBsMyt             (kN-m)              
  41   TwrBsMzt             (kN-m)              
  42   NcIMURAys            (deg/s^2)           
  43   NcIMUTAxs            (m/s^2)             


  Requested Output Channels at each blade station:
 Col   Parameter            Units               
 ---   ---------------      ---------------     
